Version 4
SHEET 1 1724 760
WIRE -80 -384 -256 -384
WIRE 80 -384 0 -384
WIRE 960 -384 160 -384
WIRE 1024 -384 960 -384
WIRE 1136 -384 1088 -384
WIRE 1264 -384 1136 -384
WIRE 960 -304 960 -384
WIRE 960 -288 960 -304
WIRE 1136 -288 1136 -384
WIRE 1264 -288 1264 -384
WIRE 912 -224 -96 -224
WIRE 432 -112 -16 -112
WIRE 624 -112 432 -112
WIRE 960 -96 960 -208
WIRE 1136 -96 1136 -224
WIRE 1136 -96 960 -96
WIRE 1264 -96 1264 -208
WIRE 1264 -96 1136 -96
WIRE 624 0 624 -112
WIRE 112 96 48 96
WIRE 432 96 432 -112
WIRE 432 96 336 96
WIRE 48 112 48 96
WIRE -256 160 -256 -384
WIRE 112 160 48 160
WIRE 496 160 336 160
WIRE 624 160 624 80
WIRE 624 160 496 160
WIRE 752 160 624 160
WIRE 496 192 496 160
WIRE 752 192 752 160
WIRE -96 224 -96 -224
WIRE 112 224 -96 224
WIRE 432 224 336 224
WIRE -16 288 -16 -112
WIRE 112 288 -16 288
WIRE 368 288 336 288
WIRE 496 368 496 336
WIRE 544 368 496 368
WIRE 752 368 752 336
WIRE 752 368 704 368
WIRE 368 384 368 352
WIRE 48 416 48 160
WIRE 432 416 432 224
WIRE 432 416 48 416
WIRE 624 416 624 368
WIRE 624 416 432 416
WIRE 624 448 624 416
WIRE -256 544 -256 240
WIRE 624 544 624 512
WIRE 624 544 -256 544
WIRE 960 544 960 -96
WIRE 960 544 624 544
WIRE 960 560 960 544
FLAG 48 112 0
FLAG 368 384 0
FLAG 960 560 0
SYMBOL Misc\\NE555 224 192 R0
SYMATTR InstName U1
SYMBOL res 608 -16 R0
SYMATTR InstName R2
SYMATTR Value 1k
SYMBOL zener 480 192 R0
WINDOW 3 49 39 Left 2
SYMATTR Value 1N5371B
SYMATTR InstName D1
SYMATTR Description Diode
SYMATTR Type diode
SYMBOL zener 768 336 R180
WINDOW 0 24 64 Left 2
WINDOW 3 -108 32 Left 2
SYMATTR InstName D2
SYMATTR Value 1N5371B
SYMATTR Description Diode
SYMATTR Type diode
SYMBOL res 736 176 R0
SYMATTR InstName R3
SYMATTR Value 2.2k
SYMBOL cap 608 448 R0
SYMATTR InstName C1
SYMATTR Value 2.5n
SYMBOL cap 352 288 R0
SYMATTR InstName C2
SYMATTR Value 10n
SYMBOL res 640 352 R90
WINDOW 0 0 56 VBottom 2
WINDOW 3 32 56 VTop 2
SYMATTR InstName 5k
SYMATTR Value 1
SYMBOL res 720 352 R90
WINDOW 0 0 56 VBottom 2
WINDOW 3 32 56 VTop 2
SYMATTR InstName R5
SYMATTR Value 5k
SYMBOL voltage -256 144 R0
WINDOW 123 0 0 Left 2
WINDOW 39 0 0 Left 2
SYMATTR InstName V1
SYMATTR Value 9
SYMBOL ind -96 -368 R270
WINDOW 0 32 56 VTop 2
WINDOW 3 5 56 VBottom 2
SYMATTR InstName L1
SYMATTR Value 220µ
SYMBOL res 64 -368 R270
WINDOW 0 32 56 VTop 2
WINDOW 3 0 56 VBottom 2
SYMATTR InstName R6
SYMATTR Value .6
SYMBOL nmos 912 -304 R0
SYMATTR InstName M1
SYMATTR Value IRFZ48N
SYMBOL schottky 1024 -368 R270
WINDOW 0 32 32 VTop 2
WINDOW 3 0 32 VBottom 2
SYMATTR InstName D3
SYMATTR Value 1N5819
SYMATTR Description Diode
SYMATTR Type diode
SYMBOL cap 1120 -288 R0
SYMATTR InstName C3
SYMATTR Value 220µ
SYMBOL res 1248 -304 R0
SYMATTR InstName R1
SYMATTR Value 360
SYMBOL res 480 240 R0
SYMATTR InstName R7
SYMATTR Value 1k
TEXT 0 744 Left 2 !.tran 0 100m
